# generated using pymatgen
data_LiO2
_symmetry_space_group_name_H-M   'P 1'
_cell_length_a   7.41530000
_cell_length_b   8.30540000
_cell_length_c   3.19500000
_cell_angle_alpha   90.00000000
_cell_angle_beta   110.10700000
_cell_angle_gamma   90.00000000
_symmetry_Int_Tables_number   1
_chemical_formula_structural   LiO2
_chemical_formula_sum   'Li4 O8'
_cell_volume   184.77784756
_cell_formula_units_Z   4
loop_
 _symmetry_equiv_pos_site_id
 _symmetry_equiv_pos_as_xyz
  1  'x, y, z'
loop_
 _atom_type_symbol
 _atom_type_oxidation_number
  Li+  1.0
  O2-  -2.0
loop_
 _atom_site_type_symbol
 _atom_site_label
 _atom_site_symmetry_multiplicity
 _atom_site_fract_x
 _atom_site_fract_y
 _atom_site_fract_z
 _atom_site_occupancy
  Li+  Li0  1  0.00000000  0.34781000  0.50000000  1.0
  Li+  Li1  1  0.00000000  0.65219000  0.50000000  1.0
  Li+  Li2  1  0.50000000  0.84781000  0.50000000  1.0
  Li+  Li3  1  0.50000000  0.15219000  0.50000000  1.0
  O2-  O4  1  0.71390000  0.00000000  0.60455000  1.0
  O2-  O5  1  0.28610000  0.00000000  0.39545000  1.0
  O2-  O6  1  0.21390000  0.50000000  0.60455000  1.0
  O2-  O7  1  0.78610000  0.50000000  0.39545000  1.0
  O2-  O8  1  0.00000000  0.20685000  0.00000000  1.0
  O2-  O9  1  0.00000000  0.79315000  0.00000000  1.0
  O2-  O10  1  0.50000000  0.70685000  0.00000000  1.0
  O2-  O11  1  0.50000000  0.29315000  0.00000000  1.0
