# generated using pymatgen
data_MnF2
_symmetry_space_group_name_H-M   'P 1'
_cell_length_a   5.12200000
_cell_length_b   5.12200000
_cell_length_c   5.25600000
_cell_angle_alpha   90.00000000
_cell_angle_beta   90.00000000
_cell_angle_gamma   90.00000000
_symmetry_Int_Tables_number   1
_chemical_formula_structural   MnF2
_chemical_formula_sum   'Mn4 F8'
_cell_volume   137.89055030
_cell_formula_units_Z   4
loop_
 _symmetry_equiv_pos_site_id
 _symmetry_equiv_pos_as_xyz
  1  'x, y, z'
loop_
 _atom_type_symbol
 _atom_type_oxidation_number
  Mn2+  2.0
  F-  -1.0
loop_
 _atom_site_type_symbol
 _atom_site_label
 _atom_site_symmetry_multiplicity
 _atom_site_fract_x
 _atom_site_fract_y
 _atom_site_fract_z
 _atom_site_occupancy
  Mn2+  Mn0  1  0.00000000  0.00000000  0.00000000  1.0
  Mn2+  Mn1  1  0.50000000  0.50000000  0.00000000  1.0
  Mn2+  Mn2  1  0.00000000  0.50000000  0.50000000  1.0
  Mn2+  Mn3  1  0.50000000  0.00000000  0.50000000  1.0
  F-  F4  1  0.70500000  0.70500000  0.28000000  1.0
  F-  F5  1  0.29500000  0.29500000  0.28000000  1.0
  F-  F6  1  0.29500000  0.70500000  0.72000000  1.0
  F-  F7  1  0.70500000  0.29500000  0.72000000  1.0
  F-  F8  1  0.80100000  0.80100000  0.62200000  1.0
  F-  F9  1  0.19900000  0.19900000  0.62200000  1.0
  F-  F10  1  0.19900000  0.80100000  0.37800000  1.0
  F-  F11  1  0.80100000  0.19900000  0.37800000  1.0
